LTspice 24.0.9 for Windows
Circuit: * C:\Users\User\Documents\Obsidian_Vault_Personal\Scripts\LTSPICE\Draft1.asc
Start Time: Sat Nov 30 18:08:06 2024
solver = Normal
Maximum thread count: 12
tnom = 27
temp = 27
method = modified trap
Instance "m1": Length shorter than recommended for a level 1 MOSFET.
.OP point found by inspection.
Total elapsed time: 0.061 seconds.

