LTspice 24.0.9 for Windows
Circuit: * C:\Users\User\Documents\Obsidian_Vault_Personal\Scripts\LTSPICE\LAB0_Analoga2_Barridofrecuencias.asc
Start Time: Tue Nov 19 19:55:41 2024
solver = Normal
Maximum thread count: 12
tnom = 27
temp = 27
method = modified trap
.OP point found by inspection.
Total elapsed time: 0.046 seconds.

