LTspice 24.0.9 for Windows
Circuit: * C:\Users\User\Documents\Obsidian_Vault_Personal\Scripts\LTSPICE\LAB0_Analoga2_x1.asc
Start Time: Tue Nov 19 22:39:58 2024
solver = Normal
Maximum thread count: 12
tnom = 27
temp = 27
method = modified trap
x1probe: using linear interpolation because trytocompact option specified
.OP point found by inspection.
Total elapsed time: 0.067 seconds.

